LAMMPS (22 Dec 2022)
Loaded 1 plugins from C:\Users\camil\AppData\Local\LAMMPS 64-bit 22Dec2022\plugins
units real
atom_style full
region box block -100 100 -100 100 -100 100
create_box 2 box bond/types 1 angle/types 1 extra/bond/per/atom 2 extra/angle/per/atom 1 extra/special/per/atom 2
Created orthogonal box = (-100 -100 -100) to (100 100 100)

mass 1 15.9994
mass 2 1.008

pair_style lj/cut/coul/cut 10.0
pair_coeff 1 1 0.1553 3.166
pair_coeff 1 2 0.0    1.0
pair_coeff 2 2 0.0    1.0

bond_style zero
bond_coeff 1 1.0

angle_style zero
angle_coeff 1 109.47

molecule water spce.mol
Read molecule template water:
  1 molecules
  0 fragments
  3 atoms with max type 2
  2 bonds with max type 1
  1 angles with max type 1
  0 dihedrals with max type 0
  0 impropers with max type 0

create_atoms 0 random 100 34564 NULL mol water 25367 remap yes
Created 300 atoms

timestep 1.0
fix rigid all shake 0.0001 10 10000 b 1 a 1
Finding SHAKE clusters ...
       0 = # of size 2 clusters
       0 = # of size 3 clusters
       0 = # of size 4 clusters
     100 = # of frozen angles
  find clusters CPU = 0.000 seconds
#minimize 0.0 0.0 1000 10000
#run 0 post no
#reset_timestep 0
velocity all create 300.0 5463576
fix integrate all nvt temp 300.0 300.0 1.0

dump waterdump all atom 5000 dump.lammpstrj

thermo_style custom step temp press etotal density pe ke
thermo 1000
run 1000000 upto
Generated 0 of 1 mixed pair_coeff terms from geometric mixing rule
SHAKE stats (type/ave/delta/count) on step 0
Bond:   1   1         2.62013e-14      200
Angle:  1   109.47    2.359e-12        100
Step          Temp          Press          TotEng        Density         PotEng         KinEng
0   300            4.8994073      165.75565      0.00037394091 -12.198706      177.95436
Averages over the last 5 of 10 rows, steps 5000 to 9000:
Temp Press TotEng Density PotEng KinEng
290.703 0.516619 184.351 0.000373941 11.9112 172.44
Bond:   1   1         2.15543e-05      200
Angle:  1   109.47    0.00218131       100
SHAKE stats (type/ave/delta/count) on step 20000
Bond:   1   1.00001   5.39745e-05      200
Angle:  1   109.47    0.00850722       100
SHAKE stats (type/ave/delta/count) on step 30000
Bond:   1   1.00001   2.40713e-05      200
Angle:  1   109.47    0.00250006       100
SHAKE stats (type/ave/delta/count) on step 40000
Bond:   1   1         4.01417e-06      200
Angle:  1   109.47    0.000450976      100
SHAKE stats (type/ave/delta/count) on step 50000
Bond:   1   0.999999  3.25449e-06      200
Angle:  1   109.47    0.000377626      100
SHAKE stats (type/ave/delta/count) on step 60000
Bond:   1   0.999981  9.14205e-05      200
Angle:  1   109.471   0.00792597       100
SHAKE stats (type/ave/delta/count) on step 70000
Bond:   1   0.999985  6.16458e-05      200
Angle:  1   109.471   0.00764455       100
SHAKE stats (type/ave/delta/count) on step 80000
Bond:   1   1.00001   8.32916e-05      200
Angle:  1   109.47    0.0106708        100
SHAKE stats (type/ave/delta/count) on step 90000
Bond:   1   1         7.68642e-06      200
Angle:  1   109.47    0.00107775       100
SHAKE stats (type/ave/delta/count) on step 100000
Bond:   1   1         5.78802e-06      200
Angle:  1   109.47    0.000660627      100
SHAKE stats (type/ave/delta/count) on step 110000
Bond:   1   1         7.7056e-06       200
Angle:  1   109.47    0.000517927      100
SHAKE stats (type/ave/delta/count) on step 120000
Bond:   1   1         5.01094e-07      200
Angle:  1   109.47    2.8725e-05       100
SHAKE stats (type/ave/delta/count) on step 130000
Bond:   1   0.999994  4.05241e-05      200
Angle:  1   109.47    0.00315894       100
SHAKE stats (type/ave/delta/count) on step 140000
Bond:   1   1.00002   0.000147032      200
Angle:  1   109.469   0.0133803        100
SHAKE stats (type/ave/delta/count) on step 150000
Bond:   1   1         2.11552e-05      200
Angle:  1   109.47    0.00225679       100
SHAKE stats (type/ave/delta/count) on step 160000
Bond:   1   1.00001   3.03883e-05      200
Angle:  1   109.47    0.00397472       100
SHAKE stats (type/ave/delta/count) on step 170000
Bond:   1   1         2.00581e-05      200
Angle:  1   109.47    0.00174272       100
SHAKE stats (type/ave/delta/count) on step 180000
Bond:   1   0.999997  1.55911e-05      200
Angle:  1   109.47    0.00159557       100
SHAKE stats (type/ave/delta/count) on step 190000
Bond:   1   0.999996  2.20432e-05      200
Angle:  1   109.47    0.002133         100
SHAKE stats (type/ave/delta/count) on step 200000
Bond:   1   0.999985  7.04049e-05      200
Angle:  1   109.47    0.00953011       100
SHAKE stats (type/ave/delta/count) on step 210000
Bond:   1   0.999982  9.98619e-05      200
Angle:  1   109.471   0.0100754        100
SHAKE stats (type/ave/delta/count) on step 220000
Bond:   1   0.999987  7.86708e-05      200
Angle:  1   109.47    0.00839691       100
SHAKE stats (type/ave/delta/count) on step 230000
Bond:   1   0.999996  2.4971e-05       200
Angle:  1   109.47    0.00199996       100
SHAKE stats (type/ave/delta/count) on step 240000
Bond:   1   0.999993  3.71652e-05      200
Angle:  1   109.47    0.0041073        100
SHAKE stats (type/ave/delta/count) on step 250000
Bond:   1   0.999991  5.70753e-05      200
Angle:  1   109.47    0.00369615       100
SHAKE stats (type/ave/delta/count) on step 260000
Bond:   1   1.00001   3.30032e-05      200
Angle:  1   109.47    0.00290218       100
SHAKE stats (type/ave/delta/count) on step 270000
Bond:   1   0.999992  5.1549e-05       200
Angle:  1   109.47    0.00398391       100
SHAKE stats (type/ave/delta/count) on step 280000
Bond:   1   1.00001   5.47379e-05      200
Angle:  1   109.47    0.00471665       100
SHAKE stats (type/ave/delta/count) on step 290000
Bond:   1   1.00001   7.66983e-05      200
Angle:  1   109.47    0.00827807       100
SHAKE stats (type/ave/delta/count) on step 300000
Bond:   1   0.999998  1.65973e-05      200
Angle:  1   109.47    0.00110332       100
SHAKE stats (type/ave/delta/count) on step 310000
Bond:   1   0.999998  1.46757e-05      200
Angle:  1   109.47    0.00134548       100
SHAKE stats (type/ave/delta/count) on step 320000
Bond:   1   1.00002   0.000173148      200
Angle:  1   109.469   0.0134162        100
SHAKE stats (type/ave/delta/count) on step 330000
Bond:   1   1         2.48939e-05      200
Angle:  1   109.47    0.00264581       100
SHAKE stats (type/ave/delta/count) on step 340000
Bond:   1   0.999988  8.79955e-05      200
Angle:  1   109.47    0.00616935       100
SHAKE stats (type/ave/delta/count) on step 350000
Bond:   1   0.999983  0.000145798      200
Angle:  1   109.471   0.0125076        100
SHAKE stats (type/ave/delta/count) on step 360000
Bond:   1   1.00001   5.52287e-05      200
Angle:  1   109.47    0.00319157       100
SHAKE stats (type/ave/delta/count) on step 370000
Bond:   1   0.999985  0.000134189      200
Angle:  1   109.471   0.00842198       100
SHAKE stats (type/ave/delta/count) on step 380000
Bond:   1   0.999998  1.50921e-05      200
Angle:  1   109.47    0.00167516       100
SHAKE stats (type/ave/delta/count) on step 390000
Bond:   1   0.999988  0.000107112      200
Angle:  1   109.471   0.00991583       100
SHAKE stats (type/ave/delta/count) on step 400000
Bond:   1   1.00001   6.4272e-05       200
Angle:  1   109.47    0.00678905       100
SHAKE stats (type/ave/delta/count) on step 410000
Bond:   1   1.00001   5.49449e-05      200
Angle:  1   109.47    0.00600905       100
SHAKE stats (type/ave/delta/count) on step 420000
Bond:   1   0.999984  0.00013011       200
Angle:  1   109.47    0.00923575       100
SHAKE stats (type/ave/delta/count) on step 430000
Bond:   1   0.999982  0.000122137      200
Angle:  1   109.47    0.0105562        100
SHAKE stats (type/ave/delta/count) on step 440000
Bond:   1   0.999987  7.69365e-05      200
Angle:  1   109.47    0.0108277        100
SHAKE stats (type/ave/delta/count) on step 450000
Bond:   1   0.999975  0.000131722      200
Angle:  1   109.471   0.0216454        100
SHAKE stats (type/ave/delta/count) on step 460000
Bond:   1   1.00002   0.000138329      200
Angle:  1   109.469   0.0165734        100
SHAKE stats (type/ave/delta/count) on step 470000
Bond:   1   0.999999  3.74455e-06      200
Angle:  1   109.47    0.000544091      100
SHAKE stats (type/ave/delta/count) on step 480000
Bond:   1   0.999999  7.1312e-06       200
Angle:  1   109.47    0.000969525      100
SHAKE stats (type/ave/delta/count) on step 490000
Bond:   1   1         1.36348e-07      200
Angle:  1   109.47    1.25848e-05      100
SHAKE stats (type/ave/delta/count) on step 500000
Bond:   1   1.00002   0.000105073      200
Angle:  1   109.469   0.0100402        100
SHAKE stats (type/ave/delta/count) on step 510000
Bond:   1   1         1.7277e-05       200
Angle:  1   109.47    0.00156186       100
SHAKE stats (type/ave/delta/count) on step 520000
Bond:   1   0.999972  0.000207138      200
Angle:  1   109.471   0.0157348        100
SHAKE stats (type/ave/delta/count) on step 530000
Bond:   1   1         1.06939e-05      200
Angle:  1   109.47    0.00172673       100
SHAKE stats (type/ave/delta/count) on step 540000
Bond:   1   0.999991  7.92834e-05      200
Angle:  1   109.47    0.00773505       100
SHAKE stats (type/ave/delta/count) on step 550000
Bond:   1   0.999996  2.23707e-05      200
Angle:  1   109.47    0.00294138       100
SHAKE stats (type/ave/delta/count) on step 560000
Bond:   1   0.99999   5.41122e-05      200
Angle:  1   109.47    0.00882998       100
SHAKE stats (type/ave/delta/count) on step 570000
Bond:   1   0.999988  7.45337e-05      200
Angle:  1   109.47    0.00948888       100
SHAKE stats (type/ave/delta/count) on step 580000
Bond:   1   1         2.35307e-06      200
Angle:  1   109.47    0.000323268      100
SHAKE stats (type/ave/delta/count) on step 590000
Bond:   1   0.999995  3.20447e-05      200
Angle:  1   109.47    0.00458733       100
SHAKE stats (type/ave/delta/count) on step 600000
Bond:   1   0.999984  8.3317e-05       200
Angle:  1   109.471   0.0106004        100
SHAKE stats (type/ave/delta/count) on step 610000
Bond:   1   0.999988  7.34698e-05      200
Angle:  1   109.47    0.00761786       100
SHAKE stats (type/ave/delta/count) on step 620000
Bond:   1   0.999979  0.000193634      200
Angle:  1   109.471   0.0148941        100
SHAKE stats (type/ave/delta/count) on step 630000
Bond:   1   1         6.28487e-07      200
Angle:  1   109.47    7.30717e-05      100
SHAKE stats (type/ave/delta/count) on step 640000
Bond:   1   1         4.01166e-06      200
Angle:  1   109.47    0.000219839      100
SHAKE stats (type/ave/delta/count) on step 650000
Bond:   1   0.999991  4.31495e-05      200
Angle:  1   109.47    0.00478377       100
SHAKE stats (type/ave/delta/count) on step 660000
Bond:   1   0.999987  6.78806e-05      200
Angle:  1   109.471   0.00923755       100
SHAKE stats (type/ave/delta/count) on step 670000
Bond:   1   0.999994  4.5874e-05       200
Angle:  1   109.47    0.00310479       100
SHAKE stats (type/ave/delta/count) on step 680000
Bond:   1   0.999993  4.0108e-05       200
Angle:  1   109.47    0.00266906       100
SHAKE stats (type/ave/delta/count) on step 690000
Bond:   1   1         7.26065e-07      200
Angle:  1   109.47    4.81061e-05      100
SHAKE stats (type/ave/delta/count) on step 700000
Bond:   1   1.00001   6.90133e-05      200
Angle:  1   109.47    0.00721643       100
SHAKE stats (type/ave/delta/count) on step 710000
Bond:   1   0.999981  0.000105896      200
Angle:  1   109.47    0.0114145        100
SHAKE stats (type/ave/delta/count) on step 720000
Bond:   1   1         1.20535e-05      200
Angle:  1   109.47    0.00101671       100
SHAKE stats (type/ave/delta/count) on step 730000
Bond:   1   0.999991  5.44174e-05      200
Angle:  1   109.47    0.00501685       100
SHAKE stats (type/ave/delta/count) on step 740000
Bond:   1   0.999978  0.000173407      200
Angle:  1   109.471   0.0123243        100
SHAKE stats (type/ave/delta/count) on step 750000
Bond:   1   1.00002   0.000131581      200
Angle:  1   109.469   0.0127788        100
SHAKE stats (type/ave/delta/count) on step 760000
Bond:   1   0.99999   5.07844e-05      200
Angle:  1   109.47    0.00564234       100
SHAKE stats (type/ave/delta/count) on step 770000
Bond:   1   1.00001   4.62291e-05      200
Angle:  1   109.47    0.00573961       100
SHAKE stats (type/ave/delta/count) on step 780000
Bond:   1   1.00002   0.000128697      200
Angle:  1   109.47    0.01221          100
SHAKE stats (type/ave/delta/count) on step 790000
Bond:   1   1.00008   0.000523002      200
Angle:  1   109.468   0.0396611        100
SHAKE stats (type/ave/delta/count) on step 800000
Bond:   1   1.00002   0.000129634      200
Angle:  1   109.469   0.0110302        100
SHAKE stats (type/ave/delta/count) on step 810000
Bond:   1   0.999983  0.000117844      200
Angle:  1   109.47    0.0100154        100
SHAKE stats (type/ave/delta/count) on step 820000
Bond:   1   0.999972  0.000148884      200
Angle:  1   109.471   0.0155841        100
SHAKE stats (type/ave/delta/count) on step 830000
Bond:   1   0.99998   9.53502e-05      200
Angle:  1   109.471   0.0106201        100
SHAKE stats (type/ave/delta/count) on step 840000
Bond:   1   1.00001   3.47083e-05      200
Angle:  1   109.47    0.00368232       100
SHAKE stats (type/ave/delta/count) on step 850000
Bond:   1   1         1.13108e-05      200
Angle:  1   109.47    0.00121477       100
SHAKE stats (type/ave/delta/count) on step 860000
Bond:   1   1.00002   0.000163357      200
Angle:  1   109.469   0.0142603        100
SHAKE stats (type/ave/delta/count) on step 870000
Bond:   1   1.00002   9.68046e-05      200
Angle:  1   109.469   0.00857443       100
SHAKE stats (type/ave/delta/count) on step 880000
Bond:   1   1.00001   0.000117373      200
Angle:  1   109.47    0.00770546       100
SHAKE stats (type/ave/delta/count) on step 890000
Bond:   1   0.999977  0.000119599      200
Angle:  1   109.47    0.0116261        100
SHAKE stats (type/ave/delta/count) on step 900000
Bond:   1   0.999993  3.56388e-05      200
Angle:  1   109.47    0.00310521       100
SHAKE stats (type/ave/delta/count) on step 910000
Bond:   1   0.999991  6.62296e-05      200
Angle:  1   109.47    0.00463408       100
SHAKE stats (type/ave/delta/count) on step 920000
Bond:   1   1.00002   7.29239e-05      200
Angle:  1   109.47    0.00725241       100
SHAKE stats (type/ave/delta/count) on step 930000
Bond:   1   1.00001   4.6269e-05       200
Angle:  1   109.47    0.00413021       100
SHAKE stats (type/ave/delta/count) on step 940000
Bond:   1   0.999992  4.88311e-05      200
Angle:  1   109.47    0.00402473       100
SHAKE stats (type/ave/delta/count) on step 950000
Bond:   1   0.999996  4.40222e-05      200
Angle:  1   109.47    0.00200132       100
SHAKE stats (type/ave/delta/count) on step 960000
Bond:   1   1.00002   9.46524e-05      200
Angle:  1   109.47    0.00707484       100
SHAKE stats (type/ave/delta/count) on step 970000
Bond:   1   1.00001   6.18549e-05      200
Angle:  1   109.47    0.00371134       100
SHAKE stats (type/ave/delta/count) on step 980000
Bond:   1   1.00002   0.00011225       200
Angle:  1   109.47    0.0106927        100
SHAKE stats (type/ave/delta/count) on step 990000
Bond:   1   0.999989  6.18165e-05      200
Angle:  1   109.47    0.00558664       100
SHAKE stats (type/ave/delta/count) on step 1000000
Bond:   1   1.00001   3.89136e-05      200
Angle:  1   109.47    0.00353102       100
Loop time of 23.58 on 1 procs for 1000000 steps with 300 atoms

write_data spc.data nocoeff
System init for write_data ...
Generated 0 of 1 mixed pair_coeff terms from geometric mixing rule
